[TITLE]


[JUNCTIONS]
;ID              	Elev        	Demand      	Pattern         
 1               	0           	0           	                	;
 2               	0           	0           	                	;
 3               	0           	0           	                	;
 4               	0           	0           	                	;
 5               	0           	0           	                	;
 6               	0           	0           	                	;
 7               	0           	0           	                	;
 8               	0           	0           	                	;
 9               	0           	0           	                	;
 10              	0           	0           	                	;
 11              	0           	0           	                	;
 Montgomery      	85          	0           	                	;
 13              	0           	0           	                	;
 14              	0           	0           	                	;
 15              	0           	0           	                	;
 x               	0           	100         	                	;
 17              	0           	0           	                	;
 TreatmentPlant  	0           	0           	                	;
 19              	0           	0           	                	;
 20              	0           	0           	                	;
 21              	0           	0           	                	;
 22              	0           	0           	                	;
 23              	0           	0           	                	;
 24              	0           	0           	                	;
 25              	0           	0           	                	;
 26              	0           	0           	                	;
 27              	0           	0           	                	;
 28              	0           	0           	                	;
 29              	0           	0           	                	;
 30              	0           	0           	                	;
 31              	0           	0           	                	;
 32              	0           	0           	                	;
 33              	0           	0           	                	;
 34              	0           	0           	                	;
 35              	0           	0           	                	;
 36              	0           	0           	                	;
 37              	0           	0           	                	;
 38              	0           	0           	                	;
 39              	0           	0           	                	;
 40              	0           	0           	                	;
 41              	0           	0           	                	;
 42              	0           	0           	                	;
 43              	0           	0           	                	;
 44              	0           	0           	                	;
 45              	0           	0           	                	;
 46              	0           	0           	                	;
 47              	0           	0           	                	;
 48              	0           	0           	                	;
 49              	0           	0           	                	;
 50              	0           	0           	                	;
 51              	0           	0           	                	;
 52              	0           	0           	                	;
 53              	0           	0           	                	;
 54              	0           	0           	                	;
 55              	0           	0           	                	;
 56              	0           	0           	                	;
 57              	0           	0           	                	;
 58              	0           	0           	                	;
 59              	0           	0           	                	;
 60              	0           	0           	                	;
 61              	0           	0           	                	;
 62              	0           	0           	                	;
 63              	0           	0           	                	;
 64              	0           	0           	                	;
 65              	0           	0           	                	;
 66              	0           	0           	                	;
 67              	0           	0           	                	;
 68              	0           	0           	                	;
 69              	0           	0           	                	;
 70              	0           	0           	                	;
 71              	0           	0           	                	;
 72              	0           	0           	                	;
 73              	0           	0           	                	;
 74              	0           	0           	                	;
 75              	0           	0           	                	;
 76              	0           	0           	                	;
 77              	0           	0           	                	;
 78              	0           	0           	                	;
 79              	0           	0           	                	;
 80              	0           	0           	                	;
 81              	0           	0           	                	;
 82              	0           	0           	                	;
 83              	0           	0           	                	;
 84              	0           	0           	                	;
 85              	0           	0           	                	;
 86              	0           	0           	                	;
 87              	0           	0           	                	;
 88              	0           	0           	                	;
 89              	0           	0           	                	;
 90              	0           	0           	                	;
 91              	0           	0           	                	;
 92              	0           	0           	                	;
 93              	0           	0           	                	;
 94              	0           	0           	                	;
 95              	0           	0           	                	;
 96              	0           	0           	                	;
 97              	0           	0           	                	;
 98              	0           	0           	                	;
 Mills           	0           	1000        	stepdemand1     	;
 100             	0           	0           	                	;
 101             	0           	0           	                	;
 Tennessee       	0           	250         	                	;
 103             	0           	0           	                	;
 104             	0           	0           	                	;
 105             	0           	0           	                	;
 106             	0           	0           	                	;
 107             	0           	0           	                	;
 108             	0           	0           	                	;
 109             	0           	0           	                	;
 110             	0           	0           	                	;
 111             	0           	0           	                	;
 112             	0           	0           	                	;
 113             	0           	0           	                	;
 114             	0           	0           	                	;
 115             	0           	0           	                	;
 116             	0           	0           	                	;
 117             	0           	0           	                	;
 118             	0           	0           	                	;
 119             	0           	0           	                	;
 120             	0           	0           	                	;
 121             	0           	0           	                	;
 122             	0           	0           	                	;
 123             	0           	0           	                	;
 124             	0           	0           	                	;
 125             	0           	0           	                	;
 126             	0           	0           	                	;
 127             	0           	0           	                	;
 128             	0           	0           	                	;
 129             	0           	0           	                	;
 130             	0           	0           	                	;
 131             	0           	0           	                	;
 132             	0           	0           	                	;
 133             	0           	0           	                	;
 Reading         	0           	100         	                	;
 135             	0           	0           	                	;
 136             	0           	0           	                	;
 137             	0           	0           	                	;
 138             	0           	0           	                	;
 139             	0           	0           	                	;
 140             	0           	0           	                	;
 141             	0           	0           	                	;
 142             	0           	0           	                	;
 143             	0           	0           	                	;
 144             	0           	0           	                	;
 145             	0           	0           	                	;
 146             	0           	0           	                	;
 147             	0           	0           	                	;
 148             	0           	0           	                	;
 149             	0           	0           	                	;
 150             	0           	0           	                	;
 Vine            	0           	78          	                	;
 152             	0           	0           	                	;
 153             	0           	0           	                	;
 154             	0           	0           	                	;
 155             	0           	0           	                	;
 156             	0           	0           	                	;
 157             	0           	0           	                	;
 158             	0           	0           	                	;
 159             	0           	0           	                	;
 160             	0           	0           	                	;
 161             	0           	0           	                	;
 162             	0           	0           	                	;
 163             	0           	0           	                	;
 164             	0           	0           	                	;
 165             	0           	0           	                	;
 166             	0           	0           	                	;
 167             	0           	0           	                	;
 168             	0           	0           	                	;
 169             	0           	0           	                	;
 170             	0           	0           	                	;
 171             	0           	0           	                	;
 172             	0           	0           	                	;
 173             	0           	0           	                	;
 174             	0           	0           	                	;
 175             	0           	0           	                	;
 176             	0           	0           	                	;
 177             	0           	0           	                	;
 178             	0           	0           	                	;
 179             	0           	0           	                	;
 180             	0           	0           	                	;
 181             	0           	0           	                	;
 182             	0           	0           	                	;
 183             	0           	0           	                	;
 184             	0           	0           	                	;
 185             	0           	0           	                	;
 186             	0           	0           	                	;
 187             	0           	0           	                	;
 188             	0           	0           	                	;
 189             	0           	0           	                	;
 190             	0           	0           	                	;
 191             	0           	0           	                	;
 192             	0           	0           	                	;
 193             	0           	0           	                	;
 194             	0           	0           	                	;
 195             	0           	0           	                	;
 196             	0           	0           	                	;
 197             	0           	0           	                	;
 198             	0           	0           	                	;
 199             	0           	0           	                	;
 200             	0           	0           	                	;
 201             	0           	0           	                	;
 202             	0           	0           	                	;
 203             	0           	0           	                	;
 204             	0           	0           	                	;
 205             	0           	0           	                	;
 206             	0           	0           	                	;
 207             	0           	0           	                	;
 208             	0           	0           	                	;
 209             	0           	0           	                	;
 210             	0           	0           	                	;
 211             	0           	0           	                	;
 212             	0           	0           	                	;
 213             	0           	0           	                	;
 214             	0           	0           	                	;
 215             	0           	0           	                	;
 216             	0           	0           	                	;
 217             	0           	0           	                	;
 218             	0           	0           	                	;
 219             	0           	0           	                	;
 220             	0           	0           	                	;
 221             	0           	0           	                	;
 222             	0           	0           	                	;
 223             	0           	0           	                	;
 224             	0           	0           	                	;
 225             	0           	0           	                	;
 226             	0           	0           	                	;
 227             	0           	0           	                	;
 228             	0           	0           	                	;
 229             	0           	0           	                	;
 230             	0           	0           	                	;
 231             	0           	0           	                	;
 232             	0           	0           	                	;
 233             	0           	0           	                	;
 234             	0           	0           	                	;
 235             	0           	0           	                	;
 236             	0           	0           	                	;
 237             	0           	0           	                	;
 238             	0           	0           	                	;
 239             	0           	0           	                	;
 240             	0           	0           	                	;
 241             	0           	0           	                	;
 242             	0           	0           	                	;
 243             	0           	0           	                	;
 244             	0           	0           	                	;
 245             	0           	0           	                	;
 246             	0           	0           	                	;
 247             	0           	0           	                	;
 248             	0           	0           	                	;
 249             	0           	0           	                	;
 250             	0           	0           	                	;
 251             	0           	0           	                	;
 252             	0           	0           	                	;
 253             	0           	0           	                	;
 254             	0           	0           	                	;
 255             	0           	0           	                	;
 256             	0           	0           	                	;
 257             	0           	0           	                	;
 258             	0           	0           	                	;
 259             	0           	0           	                	;
 260             	0           	0           	                	;
 261             	0           	0           	                	;
 262             	0           	0           	                	;
 263             	0           	0           	                	;
 264             	0           	0           	                	;
 265             	0           	0           	                	;
 266             	0           	0           	                	;
 267             	0           	0           	                	;
 268             	0           	0           	                	;
 270             	0           	0           	                	;
 271             	0           	0           	                	;
 272             	0           	0           	                	;
 273             	0           	0           	                	;

[RESERVOIRS]
;ID              	Head        	Pattern         
 Resr            	1000        	                	;

[TANKS]
;ID              	Elevation   	InitLevel   	MinLevel    	MaxLevel    	Diameter    	MinVol      	VolCurve
 NewportTank     	100         	90          	0           	95          	50          	0           	                	;

[PIPES]
;ID              	Node1           	Node2           	Length      	Diameter    	Roughness   	MinorLoss   	Status
 3               	1               	2               	1000        	12          	100         	0           	Open  	;
 4               	2               	8               	1000        	12          	100         	0           	Open  	;
 5               	4               	5               	1000        	12          	100         	0           	Open  	;
 6               	5               	2               	1000        	12          	100         	0           	Open  	;
 7               	2               	3               	1000        	12          	100         	0           	Open  	;
 8               	5               	6               	1000        	12          	100         	0           	Open  	;
 9               	7               	6               	1000        	12          	100         	0           	Open  	;
 10              	6               	8               	1000        	12          	100         	0           	Open  	;
 11              	8               	9               	1000        	12          	100         	0           	Open  	;
 12              	11              	10              	1000        	12          	100         	0           	Open  	;
 13              	9               	10              	1000        	12          	100         	0           	Open  	;
 14              	14              	13              	1000        	12          	100         	0           	Open  	;
 15              	13              	Montgomery      	1000        	12          	100         	0           	Open  	;
 16              	13              	15              	1000        	12          	100         	0           	Open  	;
 17              	15              	17              	1000        	12          	100         	0           	Open  	;
 18              	15              	x               	1000        	12          	100         	0           	Open  	;
 19              	9               	Montgomery      	1000        	12          	100         	0           	Open  	;
 20              	Montgomery      	x               	1000        	12          	100         	0           	Open  	;
 21              	x               	TreatmentPlant  	1000        	12          	100         	0           	Open  	;
 22              	20              	21              	1000        	12          	100         	0           	Open  	;
 23              	21              	22              	1000        	12          	100         	0           	Open  	;
 24              	21              	23              	1000        	12          	100         	0           	Open  	;
 25              	23              	24              	1000        	12          	100         	0           	Open  	;
 26              	19              	22              	1000        	12          	100         	0           	Open  	;
 27              	22              	24              	1000        	12          	100         	0           	Open  	;
 28              	25              	26              	1000        	12          	100         	0           	Open  	;
 29              	26              	27              	1000        	12          	100         	0           	Open  	;
 30              	23              	27              	1000        	12          	100         	0           	Open  	;
 31              	27              	28              	1000        	12          	100         	0           	Open  	;
 32              	28              	29              	1000        	12          	100         	0           	Open  	;
 33              	24              	29              	1000        	12          	100         	0           	Open  	;
 34              	Montgomery      	38              	1000        	12          	100         	0           	Open  	;
 35              	38              	39              	1000        	12          	100         	0           	Open  	;
 36              	30              	31              	1000        	12          	100         	0           	Open  	;
 37              	31              	32              	1000        	12          	100         	0           	Open  	;
 38              	32              	33              	1000        	12          	100         	0           	Open  	;
 39              	33              	35              	1000        	12          	100         	0           	Open  	;
 40              	21              	26              	1000        	12          	100         	0           	Open  	;
 41              	26              	31              	1000        	12          	100         	0           	Open  	;
 42              	27              	32              	1000        	12          	100         	0           	Open  	;
 43              	28              	35              	1000        	12          	100         	0           	Open  	;
 44              	35              	36              	1000        	12          	100         	0           	Open  	;
 45              	36              	37              	1000        	12          	100         	0           	Open  	;
 46              	37              	40              	1000        	12          	100         	0           	Open  	;
 47              	40              	42              	1000        	12          	100         	0           	Open  	;
 48              	40              	41              	1000        	12          	100         	0           	Open  	;
 49              	40              	101             	1000        	12          	100         	0           	Open  	;
 50              	101             	Tennessee       	1000        	12          	100         	0           	Open  	;
 51              	Tennessee       	107             	1000        	12          	100         	0           	Open  	;
 52              	Tennessee       	103             	1000        	12          	100         	0           	Open  	;
 53              	101             	100             	1000        	12          	100         	0           	Open  	;
 54              	100             	Mills           	1000        	12          	100         	0           	Open  	;
 55              	100             	103             	1000        	12          	100         	0           	Open  	;
 56              	Mills           	104             	1000        	12          	100         	0           	Open  	;
 57              	104             	105             	1000        	12          	100         	0           	Open  	;
 58              	104             	103             	1000        	12          	100         	0           	Open  	;
 59              	103             	106             	1000        	12          	100         	0           	Open  	;
 60              	34              	33              	1000        	12          	100         	0           	Open  	;
 61              	31              	43              	1000        	12          	100         	0           	Open  	;
 62              	43              	44              	1000        	12          	100         	0           	Open  	;
 63              	44              	50              	1000        	12          	100         	0           	Open  	;
 64              	50              	51              	1000        	12          	100         	0           	Open  	;
 65              	52              	51              	1000        	12          	100         	0           	Open  	;
 66              	52              	53              	1000        	12          	100         	0           	Open  	;
 67              	53              	49              	1000        	12          	100         	0           	Open  	;
 68              	49              	48              	1000        	12          	100         	0           	Open  	;
 69              	48              	47              	1000        	12          	100         	0           	Open  	;
 70              	47              	46              	1000        	12          	100         	0           	Open  	;
 71              	46              	45              	1000        	12          	100         	0           	Open  	;
 72              	32              	45              	1000        	12          	100         	0           	Open  	;
 73              	45              	44              	1000        	12          	100         	0           	Open  	;
 74              	33              	46              	1000        	12          	100         	0           	Open  	;
 75              	46              	50              	1000        	12          	100         	0           	Open  	;
 76              	35              	47              	1000        	12          	100         	0           	Open  	;
 77              	47              	51              	1000        	12          	100         	0           	Open  	;
 78              	36              	49              	1000        	12          	100         	0           	Open  	;
 79              	37              	71              	1000        	12          	100         	0           	Open  	;
 80              	63              	64              	1000        	12          	100         	0           	Open  	;
 81              	64              	65              	1000        	12          	100         	0           	Open  	;
 82              	65              	66              	1000        	12          	100         	0           	Open  	;
 83              	66              	67              	1000        	12          	100         	0           	Open  	;
 85              	68              	86              	1000        	12          	100         	0           	Open  	;
 86              	86              	69              	1000        	12          	100         	0           	Open  	;
 87              	69              	70              	1000        	12          	100         	0           	Open  	;
 88              	70              	71              	1000        	12          	100         	0           	Open  	;
 89              	54              	55              	1000        	12          	100         	0           	Open  	;
 90              	55              	56              	1000        	12          	100         	0           	Open  	;
 91              	56              	57              	1000        	12          	100         	0           	Open  	;
 92              	58              	59              	1000        	12          	100         	0           	Open  	;
 93              	59              	60              	1000        	12          	100         	0           	Open  	;
 94              	60              	61              	1000        	12          	100         	0           	Open  	;
 95              	61              	62              	1000        	12          	100         	0           	Open  	;
 96              	43              	65              	1000        	12          	100         	0           	Open  	;
 97              	44              	58              	1000        	12          	100         	0           	Open  	;
 98              	58              	66              	1000        	12          	100         	0           	Open  	;
 99              	59              	72              	1000        	12          	100         	0           	Open  	;
 100             	72              	67              	1000        	12          	100         	0           	Open  	;
 101             	72              	73              	1000        	12          	100         	0           	Open  	;
 102             	73              	74              	1000        	12          	100         	0           	Open  	;
 103             	50              	55              	1000        	12          	100         	0           	Open  	;
 104             	55              	60              	1000        	12          	100         	0           	Open  	;
 105             	60              	73              	1000        	12          	100         	0           	Open  	;
 106             	73              	68              	1000        	12          	100         	0           	Open  	;
 107             	51              	56              	1000        	12          	100         	0           	Open  	;
 108             	56              	61              	1000        	12          	100         	0           	Open  	;